{"title":"WEMYSTIC EN uDeals Partners + Telemac","content":"\n<p>Wemystic&#8217;s &#8220;Partners&#8221; are corporate entities, whether public or private, whether or not for profit, and are generally identified at the time of registration or, if not, belong to the category of Esotericism and Spirituality.<\/p>\n\n\n\n<h3>Your Rights<\/h3>\n\n\n\n<p>To exercise your rights of access, rectification, cancellation and opposition, forgetting and portability of your personal data can send a written communication to the following email address: &#8220;wemystic@wemystic.com&#8221;. In this exercise of rights, you must specify the claim, which will be dealt with in a timely manner, within legal deadlines.<\/p>\n\n\n\n<p>In the specific case of wanting to exercise your right of opposition, stopping to receive marketing communications you can, at all times, exercise it as follows:<\/p>\n\n\n\n<ul><li>By clicking on the link for that purpose (usually &#8220;unsubscribe&#8221; in any email message you receive as a result of your registration on this Website;<\/li><li>By sending an email to the address &#8220;wemystic@wemystic.com&#8221; with the subject &#8220;Remove&#8221;; or by postal service to the address indicated at the beginning of this privacy policy.<\/li><\/ul>\n\n\n\n<h3>Security<\/h3>\n\n\n\n<p>Wemystic uses appropriate security measures to protect your personal data against accidental or unlawful destruction, accidental loss, changes, unauthorized disclosure or access and against all other unlawful forms of processing. However, as the Internet is not completely secure, you may be warned that the personal data can go through networks without security conditions, with the risk of being seen and used by unauthorized third parties.<\/p>\n\n\n\n<h3>Data Retention<\/h3>\n\n\n\n<p>Your data is stored by Wemystic for the purposes described here, and to prove your registration on this Website, as well as to the exercise of your rights, within the time limits allowable according to the guidelines of the Supervisory entities.<\/p>\n\n\n\n<h3>TELEMAC Terms and Conditions<\/h3>\n\n\n\n<p>Last Updated: February, 27th 2020<\/p>\n\n\n\n<p>PLEASE READ THESE TERMS OF USE CAREFULLY, AS THEY AFFECT YOUR LEGAL RIGHTS AND OBLIGATIONS, INCLUDING, BUT NOT LIMITED TO, WAIVERS OF RIGHTS, DISPUTE RESOLUTION, LIMITATION OF LIABILITY, AND YOUR INDEMNITY TO US.<\/p>\n\n\n\n<p>Welcome to the Terms of Use Agreement (&#8220;Agreement&#8221;). This is a legal agreement between you and TELEMAC INC. hereinafter referred to as &#8220;TELEMAC&#8221;, the &#8220;Company,&#8221; or &#8220;We&#8221;.<\/p>\n\n\n\n<p>Information you provide is governed by our Privacy Policy.<\/p>\n\n\n\n<p>If TELEMAC accepts your Account and\/or Registration, you will become a &#8220;Customer&#8221; having access to the Sites (as defined below) and Services (as defined below) only under the policies, terms and conditions below. The Services and the Sites are provided by the Company for entertainment purposes only. IF YOU DO NOT AGREE TO ACCEPT THIS CUSTOMER AGREEMENT IN ITS ENTIRETY, YOU SHOULD NOT ACCESS OR USE THE SITES OR SERVICES.<\/p>\n\n\n\n<p>The policies, terms and conditions below limit the Company\u2019s liability and obligations to you. Please note that the Company may change, suspend or terminate your access to and use of the Sites and Services at any time if, in TELEMAC\u2019s sole discretion, you violate any terms and conditions of this Agreement. We urge you to carefully read the following terms and conditions, and all policies referenced below or elsewhere on the Sites.<\/p>\n\n\n\n<ol><li>INTRODUCTION<\/li><li>ACCEPTANCE AND PROCEDURE<\/li><li>PRIVACY POLICY<\/li><li>UPDATES TO THESE TERMS<\/li><li>RULES OF SERVICES<\/li><li>AUTHORIZED USE<\/li><li>INTELLECTUAL PROPERTY RIGHTS<\/li><li>CUSTOMER-SUBMITTED INFORMATION<\/li><li>ACCOUNT AND REGISTRATION<\/li><li>FEES AND PURCHASE TERMS<\/li><li>MONITORING<\/li><li>UPDATES TO THE COMPANY PROPERTIES<\/li><li>THIRD PARTY SERVICES<\/li><li>DISCLAIMER \u2013 NO PROFESSIONAL ADVICE<\/li><li>LIMITATIONS OF LIABILITY<\/li><li>NOTICE OF COPYRIGHT INFRINGEMENT<\/li><li>INDEMNIFICATION<\/li><li>TERMINATION<\/li><li>CHILD PRIVACY<\/li><li>DISPUTE RESOLUTION; INJUNCTIVE RELIEF<\/li><li>INTERNATIONAL CUSTOMERS<\/li><li>GENERAL PROVISIONS<\/li><li>CONTACTING THE COMPANY &amp; SUBMISSIONS<\/li><\/ol>\n\n\n\n<h4>1. INTRODUCTION<\/h4>\n\n\n\n<p>TELEMAC OFFERS PSYCHIC AND ASTROLOGICAL ENTERTAINMENT SERVICES INCLUDING BUT NOT LIMITED TO, WEBSITES AND MOBILE APPLICATIONS (COLLECTIVELY, THE \u201cSITES\u201d), TELEPHONE AND CHAT PSYCHIC READINGS (COLLECTIVELY, THE \u201cSERVICES\u201d). THE SERVICES MAY ALSO INCLUDE PUBLISHING NEWSLETTERS, HOROSCOPE AND PROVIDING OTHER PSYCHIC AND ASTROLOGICAL CONTENT (COLLECTIVELY, THE \u201cCONTENT\u201d) TO ITS CUSTOMERS (\u201cCUSTOMERS\u201d AND\/OR \u201cYOU\u201d).<\/p>\n\n\n\n<p>THE SERVICES AVAILABLE HERE ARE PROVIDED BY TELEMAC FOR ENTERTAINMENT PURPOSES ONLY.<\/p>\n\n\n\n<p>AT TELEMAC WE WANT YOU TO ENJOY AND BENEFIT FROM YOUR READING. WE DON&#8217;T GUARANTEE THAT PSYCHIC READERS\u2019 PREDICTIONS WILL COME TRUE, BUT OUR PSYCHIC READERS MAKE EVERY EFFORT TO PROVIDE YOU WITH ADVICE. HOWEVER, THIS INFORMATION SHOULD NOT BE USED IN PLACE OF ANY RECOMMENDATIONS BY MEDICAL, LEGAL, OR FINANCIAL PROFESSIONALS OR OTHER PROFESSIONAL COUNSELORS.<\/p>\n\n\n\n<p>ANY OPINION, RESPONSE, ADVICE, SUGGESTION, PREDICATION, INFORMATION, AND\/OR OTHER SERVICE PROVIDED BY ANY PSYCHIC READER IS PROVIDED FOR ENTERTAINMENT PURPOSES ONLY.<\/p>\n\n\n\n<p>IT IS YOUR RESPONSIBILITY TO EVALUATE ANY INFORMATION, OPINION, ADVICE OR OTHER CONTENT AVAILABLE PROVIDED BY TELEMAC. ACCORDINGLY, PLEASE READ THESE TERMS OF USE CAREFULLY BEFORE USING THE SITES AND SERVICES, AS THEY AFFECT YOUR LEGAL RIGHTS AND OBLIGATIONS, INCLUDING, BUT NOT LIMITED TO, WAIVERS OF RIGHTS, DISPUTE RESOLUTION, LIMITATION OF LIABILITY, AND YOUR INDEMNITY TO US.<\/p>\n\n\n\n<p>IF YOU ARE THINKING ABOUT SUICIDE, IF YOU FEEL YOU MAY BE A DANGER TO YOURSELF OR OTHERS, OR IF YOU OTHERWISE HAVE ANY MEDICAL EMERGENCY, PLEASE IMMEDIATELY NOTIFY THE POLICE OR EMERGENCY MEDICAL SERVICES IN YOUR AREA. IN THE UNITED STATES, PLEASE DIAL 911.<\/p>\n\n\n\n<p>YOU MUST BE EIGHTEEN (18) YEARS OF AGE OR OLDER TO OPEN AN ACCOUNT (\u201cACCOUNT\u201d) OR REGISTER (\u201cREGISTRATION\u201d) AND GET PSYCHIC READINGS AND RELATED SERVICES (COLLECTIVELY, \u201cREADINGS\u201d), AND TO SIGN UP TO RECEIVE HOROSCOPES AND NEWSLETTERS. PLEASE SEE ARTICLE 19 IF YOU ARE A MINOR.<\/p>\n\n\n\n<p>ALL CREDIT CARD PURCHASES MUST BE MADE BY THE CARD HOLDER.<\/p>\n\n\n\n<h4>2. ACCEPTANCE PROCEDURE<\/h4>\n\n\n\n<p>By visiting and using the Sites or receiving Services, You acknowledge that You have read the Terms of Use and that You accept and agree, without limitation or qualification, to be bound by the terms hereof.<\/p>\n\n\n\n<p>By formerly accepting and agreeing to the Terms of Use, You become a Customer of the Company, and therefore You establish a business relationship between You and the Company. Consumers visiting our Sites without registration or opening an account are considered as Prospects.<\/p>\n\n\n\n<p>TELEMAC reserves the right, at its sole discretion, to change these Terms of Use from time to time, and Your continued access to and use of the Sites and\/or Services will be deemed to be Your acceptance of and agreement to any such changed terms and conditions. If You do not wish to be bound to these Terms of Use (or any revisions to these Terms of Use), You must discontinue use of the Sites and the Services and immediately close Your Account and\/or cancel Your Registration by calling our Customer Service at the numbers at the end of these Terms.<\/p>\n\n\n\n<h4>3. PRIVACY POLICY<\/h4>\n\n\n\n<p>We know that the privacy of Your personal information is important to You. The personal information You submit to TELEMAC by visiting and using the Sites or receiving Services is governed by the Privacy Policy, which is incorporated herein by reference and made a part of these Terms of Use. To the extent there is an inconsistency between the Terms of Use and the Privacy Policy, the Privacy Policy shall govern.<\/p>\n\n\n\n<h5>Retention of Personal Data<\/h5>\n\n\n\n<p>The retention periods for personal data in TELEMAC have been designed to reflect the retention period of the original personal data source. The database is automatically updated on a regular basis, and personal data will not be stored beyond a reasonable time after it has been removed from the original source.<\/p>\n\n\n\n<p>The personal data will be kept for the duration of the usage of the Services and at most 5 years after the date of the latest contact with the company. The retention periods for personal data in TELEMAC can be extended as necessary in any event of dispute management, collection needs, criminal activity and in order to prevent possible illegal behavior. When such requirements no longer exist, personal data will be deleted.<\/p>\n\n\n\n<h4>4. UPDATES TO THESE TERMS<\/h4>\n\n\n\n<p>WE MAY AMEND THESE TERMS OF USE AT ANY TIME IN OUR DISCRETION. PLEASE CHECK THE &#8220;LAST UPDATED&#8221; LEGEND AT THE TOP OF THIS PAGE TO SEE WHEN THESE TERMS OF USE WERE LAST REVISED. A CURRENT VERSION OF THIS AGREEMENT SHOWING THE EFFECTIVE DATE IS ALWAYS AVAILABLE HERE. WE ENCOURAGE YOU TO PERIODICALLY REVIEW THESE TERMS TO SEE IF THERE HAVE BEEN ANY CHANGES THAT MAY AFFECT YOU. CHANGES TO THESE TERMS WILL BE EFFECTIVE IMMEDIATELY FOR NEW CUSTOMERS OF THE SITES AND ASSOCIATED SERVICES. HOWEVER, IF WE MAKE ANY MATERIAL CHANGES TO THESE TERMS OF USE, WE WILL NOTIFY EXISTING CUSTOMERS BY PROMINENTLY POSTING NOTICE OF THE CHANGES ON THE SITES AND\/OR SENDING AN EMAIL TO OUR CUSTOMERS FOR WHO WE HAVE UP TO DATE EMAIL ADDRESSES. ALL CHANGES TO THESE TERMS SHALL BE EFFECTIVE IMMEDIATELY UPON POSTING TO THE SITES, WITHOUT ANY DELAY. IF YOU DO NOT AGREE TO THE REVISED TERMS OF USE, YOU MUST DISCONTINUE USING THE SITES AND ASSOCIATED SERVICES. YOU AGREE THAT YOUR CONTINUED USE OF THE SITES AFTER NOTICE OF SUCH CHANGES TO THE TERMS SHALL SIGNIFY YOUR ACCEPTANCE OF SUCH CHANGES.<\/p>\n\n\n\n<h4>5. RULES OF SERVICES<\/h4>\n\n\n\n<p>Eligibility to use the Site and Services is limited. Without limiting the foregoing, the Site and Services are not available to Customers who do not have a valid Customer Agreement in effect, or who TELEMAC has suspended from use of the Sites or Services.<\/p>\n\n\n\n<p>You shall also not use the Sites or Services if your use is prohibited by the laws of the United States or any other country of your residence.<\/p>\n\n\n\n<h5>Communication with Psychic Readers<\/h5>\n\n\n\n<p>the Company is not responsible for any telephone and\/or online charges you may incur as a result of and\/or in connection with services provided by TELEMAC.<\/p>\n\n\n\n<p>You agree that You will not send chat messages (either online or through mobile applications) which may include statements that are abusive, discriminatory, defamatory, obscene, pornographic or otherwise inappropriate.<\/p>\n\n\n\n<p>A Psychic Reader has the right to terminate any correspondence, exchange, or conversation at any time if a customer\u2019s comments and\/or behavior is deemed by the Psychic Reader, in his or her sole discretion, to be inappropriate, abusive, or threatening. Psychic Readers will report the termination to Customer Service and such a customer may be denied future access. Any such report made by a Psychic Reader to us shall not be deemed a violation of our Privacy Policy.<\/p>\n\n\n\n<p>TELEMAC prohibits any Customer from requesting that Psychic Readers disclose personal contact information. Please do not disclose to a Psychic Reader, including but not limited to, Your last name, telephone number, any Social Network account or information, Your account username or password, or any personal contact details during a psychic reading. If you voluntarily disclose your own personal contact information to Psychic Readers, you do so at your own risk. Please note that Psychic Readers will not ask You for any of the foregoing information.<\/p>\n\n\n\n<p>The Company prohibits Customers from using the Sites or Services to solicit Psychic Readers to meet with them in person. If you do meet with Psychic Readers, you do so at your own risk. Please note that Psychic Readers will not ask to meet with them in person.<\/p>\n\n\n\n<p>The Company and\/or any of the Company\u2019s agents and\/or employees, including but not limited to a Psychic Reader, are not trained or equipped to be a suicide hotline. Please contact a suicide hotline, your personal physician, a hospital emergency room, or 911 in the United States or local emergency contact number for professional assistance. If you give your personal information to a Psychic Reader or and later threaten suicide, we reserve the right to contact appropriate authorities, however, no guarantee is made that someone will contact emergency personnel for you.<\/p>\n\n\n\n<h5>Account and registration<\/h5>\n\n\n\n<p>To access Chat Psychic Readings, You must create an Account (on websites, within mobile applications). While on mobile applications, the Customer does not need to create an account and may proceed anonymously, please note that an account will still be created for purposes of receiving Services.<\/p>\n\n\n\n<p>To access Telephone Psychic Readings, You must register within our Customer Service Center (\u201cRegistration\u201d); call our Customer Service and talk to a Customer Representative.<\/p>\n\n\n\n<p>You certify that the information given to TELEMAC upon opening Your Account or\/and Registration, as well as all changes You make to Your account or\/and Registration, are true and complete. You certify that You will not give false statements nor make identity theft. TELEMAC will not be responsible for any false statements or identify theft You make in connection with Your Account or\/and Registration.<\/p>\n\n\n\n<p>Based on Your personal information, and other factors identified by the Company in its sole discretion, TELEMAC may choose to verify your credit, identity and\/or other background information in order for you to continue using the Sites or Services. In such event, You agree to provide TELEMAC with additional information that may be requested; You consent to TELEMAC &#8216;s disclosure of your personal information to third-party service providers in order to verify your credit, identity and\/or other background information; and You authorize TELEMAC to obtain a consumer credit report or information from consumer credit reporting agencies and to verify your identity.<\/p>\n\n\n\n<h5>Payment and Charges<\/h5>\n\n\n\n<p>You agree to pay for all Services, including Readings (by chat or by phone), purchased using Your Account or\/and Registration in accordance with the fees, charges, and billing terms in effect at the time a fee or charge is due and payable.<\/p>\n\n\n\n<p>Charges for telephone psychic reading are calculated based on full-minute increments, and the length of a Reading is rounded up to the next full-minute at the end of each Reading.<\/p>\n\n\n\n<p>Charges for chat psychic reading are calculated on a per-message basis and correspond to one credit per message sent.<\/p>\n\n\n\n<p>For all purchases of Services, You agree that You will use only credit cards, debit cards for which You are the card or account holder.<\/p>\n\n\n\n<h5>Call backs<\/h5>\n\n\n\n<p>You can request us to call You back whenever You want. Callback requests can be made from landlines and mobile phones. When asked, make sure You enter the phone number correctly. If You do not enter your number correctly, we cannot call You back.<\/p>\n\n\n\n<p>Your hereby acknowledge, understand and agree that TELEMAC may call and\/or text you within a twenty (20) minute time frame: (i) when you enter your information for the purpose of receiving a call back; (ii) when you get disconnected or a technical issue terminates the call incidentally; (iii) 9am to 5pm US Eastern Time; or (iv) a scheduled time agreed between You and TELEMAC.<\/p>\n\n\n\n<h5>Confidentiality of Account Information<\/h5>\n\n\n\n<p>You agree to maintain the confidentiality of Your Account information, including Your password (\u201cPassword\u201d), if one is issued, and Username (\u201cUsername\u201d), and to notify the Company of any unauthorized use of Your Account, Password or Username, or any other breach of security.<\/p>\n\n\n\n<p>You agree to never allow another person access to your Account or Registration.<\/p>\n\n\n\n<p>You are fully responsible for all activities that occur under your account.<\/p>\n\n\n\n<h5>Account and Credits, Credit Packages (Chat Psychic Reading Service only)<\/h5>\n\n\n\n<p>To access Chat Psychic Reading Service (either online or through mobile applications), You must purchase or receive \u201ccredits\u201d which will be deposited into Your Account. Any balance associated with Your Account will be denominated in credits rather than U.S. Dollars or another currency. Credits can only be used to access Chat Psychic Reading. Credits have no cash value and are not redeemable for cash except to the extent required by law. Credits are issued by the Company. However, the Company may in its sole discretion assign any obligations it may have with respect to Credits to an affiliate or third party, without recourse. In the event of any such assignment, You agree that such assignee, and not the Company, shall be solely liable to You with respect to the Credits.<\/p>\n\n\n\n<p>Credits never expire.<\/p>\n\n\n\n<p>You may add Credits to Your Account by purchasing a package of Credits (a \u201cCredit Package\u201d). You may purchase a Credit Package solely on Websites or Mobile Applications.<\/p>\n\n\n\n<p>You may also receive promotional Credits through special programs or through other offers, Customer accommodations, or for other reasons, as discussed further below.<\/p>\n\n\n\n<p>Package purchases and Credits balances are not refundable (except in the limited instances explained below regarding Our Satisfaction Guarantee), and they may only be redeemed for Services. To redeem Your Credits for Services, Your Account must be active.<\/p>\n\n\n\n<h5>Registration and Pay Per Minute, Minute Packages (Telephone Psychic Reading only)<\/h5>\n\n\n\n<p>To access Telephone Psychic Reading Service, You must pay per minute (pay per minute mode) or use purchased minute packages (\u201cMinute Package\u201d, package follow-up mode) to connect to any reader. Once You purchased minutes have been spent, You will be charged standard rates per minute or will have the option to purchase minute packages.<\/p>\n\n\n\n<p>If You are a first-time caller, You will be asked to register and to communicate Your credit card details to a Customer Representative. You will only be connected to a Psychic Reader if You provide valid credit card details. Please read our Privacy Policy regarding use and storage of such information. Once payment has been processed, purchased minutes will be added to Your account corresponding to the Minute Package or special offer package purchased.<\/p>\n\n\n\n<p>Please note that if You terminate the call before the end of any special offer package purchased or offered, You will lose such remaining minutes. TELEMAC does not give refunds on such remaining minutes. Special package offers are not compatible with minute package usage. At the end of the special offer package purchased or offered, You will hear a bell alerting You that the special offer package is terminated and that You will be charged per minute based on standard rates or will have the option to purchase minute packages.<\/p>\n\n\n\n<p>The Minute package is valid one (1) year from the date of purchase. Once expiration date is reached, a package is no longer valid and cannot be used and You will lose remaining minutes. TELEMAC does not give refunds on such remaining minutes.<\/p>\n\n\n\n<p>You expressly understand and agree that You are responsible for any time spent on the phone and\/or chatting with Psychic Readers. Neither TELEMAC nor any of its affiliates (including parent or subsidiary companies), will be liable to You for failure to inform You of the end time of Your telephone and\/or Chat Psychic Reading.<\/p>\n\n\n\n<p>For more information on billing practices and\/or Credit\/Minutes Packages and\/or special offers, call Our Customer Service at the numbers at the end of these Terms.<\/p>\n\n\n\n<h5>Recording and Retention of Readings<\/h5>\n\n\n\n<p>You agree that You will not use any audio recording or retention devices\/technology in connection with Readings, and You will not otherwise make any recordings, copies, scans, or transcriptions of Readings, including Readings by phone or chat, without the prior written consent of the Company. You acknowledge and agree that Company may record Telephone and Chat Psychic Readings. Although Company may provide You with access to recordings of Telephone and Chat Psychic Readings, You acknowledge and agree that, at any time in its discretion, Company may (i) delete such recordings, and\/or (ii) terminate Your access to such recordings pursuant to the terms of the Privacy Policy.<\/p>\n\n\n\n<h5>Refusal of Services<\/h5>\n\n\n\n<p>We reserve the right to refuse the provision of Services and\/or access to the Sites to any person for any reason. We also reserve the right to pursue legal action against any person who commits fraud, or otherwise violates applicable laws, on our Sites or using our Services. Furthermore, a Psychic Reader has the right to terminate the provision of Services at any time if a Customer\u2019s comments and\/or behavior are deemed by the Psychic Reader to be inappropriate, abusive, or threatening. Psychic Readers will report the termination to Customer Service and such a Customer may be denied future access to the Sites and\/or Services. Any such report made by a Psychic Reader to us shall not be deemed a violation of our Privacy Policy.<\/p>\n\n\n\n<h5>Our Satisfaction Guarantee<\/h5>\n\n\n\n<p>We don&#8217;t guarantee that Psychic Readers\u2019 predictions will come true, but we do our best to ensure that You enjoy the Readings. To ensure Your satisfaction with Your Reading experience, we offer a guarantee as specified hereunder.<\/p>\n\n\n\n<p>Chat psychic reading only:<\/p>\n\n\n\n<p>Specifically, we will credit Your Account with Credits in accordance with the following guidelines:<\/p>\n\n\n\n<ul><li>If You make a request within 24 hours, we will credit Your Account in Credits for an amount determined at the sole discretion of TELEMAC based on the circumstances.<\/li><li>Any such amount will be based on the type of Credit Packages purchased; provided, however, that no credit granted can exceed the number of credits of the largest Credit Package. Credit requests are limited to one unsatisfactory paid Reading per month.<\/li><\/ul>\n\n\n\n<p>Telephone psychic reading only:<\/p>\n\n\n\n<p>Specifically, we will grant You phone reading minutes in accordance with the following guidelines:<\/p>\n\n\n\n<ul><li>If You make a request within 24 hours, we will grant You phone reading minutes for an amount determined at the sole discretion of TELEMAC based on the circumstances.<\/li><li>Any such amount will be based on the duration of the reading in question; provided, however, that no minutes granted can exceed the number of minutes of the reading in question. Minutes requests are limited to one unsatisfactory paid Reading per month.<\/li><\/ul>\n\n\n\n<p>This satisfaction guarantee is valid once per month, per customer, per Psychic Reader and does not apply to Readings with Psychic Readers for whom You have received any Credit\/Minute in the past from this guarantee.<\/p>\n\n\n\n<p>No cash refunds will be provided for any reason within this Satisfaction Guarantee.<\/p>\n\n\n\n<p>For us to issue a Credit to Your Account or Registration, You must have an Account or a Registration that is active and in good standing.<\/p>\n\n\n\n<p>Only genuine issues relating to Your satisfaction with the Reading in question (as determined in TELEMAC\u2019s sole discretion) will be considered for a Credit\/Minute request. We reserve the right to refuse to issue a Credit.<\/p>\n\n\n\n<h5>Discounts and Offers<\/h5>\n\n\n\n<p>Unless otherwise specifically provided, all discounts and special offers are non-transferrable, valid for a limited period of time, can be used only once per Customer, and may not be combined with any other discount or special offer. Unless otherwise specifically provided, introductory offers are valid only for new Customers on their first purchase or usage of the Services and\/or the Sites. There is a limit of one introductory offer per person, credit card, phone number, address, and email, and anyone who attempts to circumvent this limitation may be refused service and subject to liability.<\/p>\n\n\n\n<h5>Carrier Transactions and Charges<\/h5>\n\n\n\n<p>Your dealings with any wireless, telecommunications, or other carrier (&#8220;Carrier&#8221;) in connection with accessing the Sites and the use or provision of Services, including payment for usage charges, participation in any promotions offered by any Carrier and\/or any other terms, conditions, warranties or representations associated with such dealings or promotions, are solely between you and the Carrier. TELEMAC is not responsible for any such Carrier dealings or promotions.<\/p>\n\n\n\n<h4>6. AUTHORIZED USE<\/h4>\n\n\n\n<p>Your right to use the Sites and the Services, and all Content made available by the Company, its suppliers, and\/or advertisers on or in, or purchased through, the Company (collectively, the &#8220;Company Property&#8221;) is personal to You. You are permitted to use the Company Property solely for Your own personal use. You are solely responsible for the contents of Your transmissions through the Company Property. Your use of the Company Property is subject to all applicable local, state, national and international laws and regulations.<\/p>\n\n\n\n<p>You agree:<\/p>\n\n\n\n<p>(a) to comply with all applicable statutes, orders, regulations, rules, and other laws, including such laws regarding the transmission of technical data exported from the United States through the Company Property;<\/p>\n\n\n\n<p>(b) not to use the Company Property for any fraudulent or illegal purposes;<\/p>\n\n\n\n<p>(c) not to take any action to interfere with the Sites and\/or Services or any other User&#8217;s use of the Sites and\/or Services and to respect the rights and dignity of others;<\/p>\n\n\n\n<p>(d) not to interfere or disrupt networks connected to the Company;<\/p>\n\n\n\n<p>(e) to comply with all applicable regulations, policies and procedures of networks connected to the Company Property;<\/p>\n\n\n\n<p>(f) not to use any data mining, robots or similar data gathering and extraction methods in connection with the Company Property;<\/p>\n\n\n\n<p>(g) not to post, upload, share, transmit, distribute, facilitate distribution of or otherwise make available to or through the Sites and\/or Services any unlawful, infringing, harmful, harassing, defamatory, threatening, intimidating, fraudulent, tortious, vulgar or otherwise objectionable material of any kind, including unauthorized or unsolicited advertising;<\/p>\n\n\n\n<p>(h) not to reproduce, duplicate or copy any portion of the Sites and\/or Services, except as authorized by these Terms of Use;<\/p>\n\n\n\n<p>(i) not to sell, resell or otherwise exploit for any commercial purposes any portion of, the use of or access to the Sites and\/or Services without the prior written consent of the Company;<\/p>\n\n\n\n<p>(j) not to impersonate any person or entity, falsely state or otherwise misrepresent Your affiliation with any person or entity in connection with the Sites and\/or Services, or express or imply that we endorse any statement You make;<\/p>\n\n\n\n<p>(k) not to access or attempt to access any of the Company\u2019s computer system without authorization;<\/p>\n\n\n\n<p>(l) not to remove any copyright, trademark or other proprietary rights notice from the Sites or other Company Property;<\/p>\n\n\n\n<p>(m) not to violate or attempt to violate the security of the Sites;<\/p>\n\n\n\n<p>(n) not to disseminate on the Sites any viruses, worms, spyware, adware or other malicious computer code, file or program that is harmful, invasive or may or is intended to damage or hijack the operation of, or monitor the use of, any hardware, software or equipment;<\/p>\n\n\n\n<p>(p) not to assist or permit any persons in violating these Terms of Use or applicable statutes, orders, regulations, rules, and other laws governing the use of the Sites and\/or the Services.<\/p>\n\n\n\n<p>(q) not to frame or utilize framing techniques to enclose any trademark, logo, or other Company Property (including images, text, page layout or form) of the Company;<\/p>\n\n\n\n<p>(r) not to use any metatags or other &#8220;hidden text&#8221; using the Company&#8217;s name or trademarks;<\/p>\n\n\n\n<p>(s) not to modify, translate, adapt, merge, make derivative works of, disassemble, decompile, reverse compile or reverse engineer any part of the Company Property except to the extent the foregoing restrictions are expressly prohibited by applicable law;<\/p>\n\n\n\n<p>(t) not to use any manual or automated software, devices or other processes (including but not limited to spiders, robots, scrapers, crawlers, avatars, data mining tools or the like) to &#8220;scrape&#8221; or download data from any web pages contained in the Sites (except that we grant the operators of public search engines revocable permission to use spiders to copy materials from the Sites for the sole purpose of and solely to the extent necessary for creating publicly available searchable indices of the materials, but not caches or archives of such materials);<\/p>\n\n\n\n<p>(u) not to access the Company Property in order to build a similar or competitive websites, mobile applications or services;<\/p>\n\n\n\n<p>(v) You will not undermine, disrupt, or manipulate the integrity of the Customer feedback rating system of the Psychic Readers.<\/p>\n\n\n\n<p>Subject to Your compliance with the Terms herein, the Company grants You a limited non-exclusive, non-transferable, non-sublicensable, revocable license to download, install and use a copy of Mobile Applications on a single mobile device or computer that You own or control and to run such copy of Mobile Applications solely for Your own personal purposes. Furthermore, with respect to any application accessed through or downloaded from the Apple App Store (an &#8220;App Store Sourced Application&#8221;), You will only use the App Store Sourced Application (i) on an Apple-branded product that runs the iOS (Apple&#8217;s proprietary operating system) and (ii) as permitted by the &#8220;Usage Rules&#8221; set forth in the Apple App Store.<\/p>\n\n\n\n<h4>7. INTELLECTUAL PROPERTY RIGHTS<\/h4>\n\n\n\n<p>The contents of the Sites, including, without limitation, all designs, text, graphics, other files, and the selection and arrangement thereof, are copyrighted and proprietary property. TELEMAC hereby authorizes you to copy (electronically or in hard copy) materials published on the Sites or in print for non-commercial personal use only, provided that any copy of these documents which you make shall retain all copyright and other proprietary notices and any disclaimer contained on the documents. Except as expressly provided above, You may not otherwise copy, display, download, distribute, modify, reproduce, republish or retransmit any information, text or documents contained in the Sites or any portion thereof in any electronic medium or in hard copy, or create any derivative work based on such images, text or documents, without the express written consent of the Company. No information or statement contained in these Terms of Use or the Sites shall be construed as conferring, directly or by implication, estoppel, or otherwise, any license or right under any patent, copyright, trademark or other intellectual property right of the Company, its affiliates, or any third party. TELEMAC may, at our discretion, limit or restrict the access and use of the Sites of any customers who infringe the intellectual property rights in the manner described above.<\/p>\n\n\n\n<p>Any rights not expressly granted herein are reserved.<\/p>\n\n\n\n<h4>8. USER-SUBMITTED INFORMATION<\/h4>\n\n\n\n<h5>8.1 User content<\/h5>\n\n\n\n<p>You are responsible for any content that you upload, post, email, transmit or otherwise make available on or through the Company Property, whether publicly posted or privately transmitted (\u201cUser Content\u201d). You agree, represent and warrant that any User Content you transmit through our Sites or to the Company is truthful, accurate, not misleading and offered in good faith, and that You have the right to transmit such User Content. You shall not upload, post or otherwise make available on or through the Sites any User Content protected by copyright, trademark or other proprietary right of any third party without the express written permission of the owner of such right(s) or the authority to do so. You shall be solely liable for any damages resulting from any infringement of copyright, trademark or other proprietary rights, or any other harm resulting from such a submission. We do not want You to, and You should not, send any confidential or proprietary content to us unless specifically requested by us. Please note that any unsolicited content sent to the Company will be deemed not to be confidential or proprietary.<\/p>\n\n\n\n<p>You agree not transmit through our Sites on or through the Company Property any unlawful, harassing, libelous, abusive, threatening, harmful, vulgar, obscene or otherwise objectionable material of any kind or nature. You further agree not to transmit any material that encourages conduct that could constitute a criminal offense, give rise to civil liability, or otherwise violate any applicable local, state, national or international law or regulation. We may (but have no obligation to) to remove any content you transmit through our Sites for any reason (or no reason). In addition, if we become aware of any possible violations by you of any provisions of the Terms, TELEMAC reserves the right to investigate such violations and we may, at our sole discretion, immediately terminate your license to use the Company Property, or change, alter, or remove content you transmit through our Sites, in whole or in part, without prior notice to You.<\/p>\n\n\n\n<p>By submitting User Content, other than personally identifiable information, you grant to the Company (or warrant that the owner of such User Content has expressly granted to the Company) a non-exclusive, worldwide, royalty-free, transferable, and sublicensable (through multiple tiers) right to exercise any and all copyright, publicity, trademarks, database rights and intellectual property rights You have in the User Content, in any media known now or in the future. Further, to the fullest extent permitted under applicable law, you waive your moral rights and promise not to assert such rights against the Company, its sublicensees or its assignees. You represent and warrant that none of the following infringe any intellectual property or any other right of any third party: Your provision of User Content to the Company, your posting of User Content using the Services and\/or the Sites, and the use of such User Content (including of works derived from it) by TELEMAC, its Customers, or others in contract with TELEMAC is done in connection with the Services and in compliance with these Terms.<\/p>\n\n\n\n<h5>8.2 Feedback policy<\/h5>\n\n\n\n<p>We urge all Customers to please use caution and good judgment when leaving feedback. What You write can be read by other Customers. Please also bear in mind that You may be held legally responsible for damages to someone&#8217;s reputation if a court, tribunal or other authorized authority finds that your remarks are defamatory. Under applicable laws, including the Communications Decency Act, TELEMAC is not legally responsible for the feedback that Customers post on its Sites, even if that feedback is defamatory. TELEMAC provides a platform to its Customers as a place for our Customers to express their opinions, and we will neither censor these opinions nor investigate them for accuracy.<\/p>\n\n\n\n<p>To ensure that the feedback system is not abused, TELEMAC may remove feedback in the situations described below. If you believe that another Customer has left feedback that meets one or more of the following criteria, you may contact the Customer Service to seek review.<\/p>\n\n\n\n<p>Circumstances in Which TELEMAC Will Consider Removing Feedback:<\/p>\n\n\n\n<p>The feedback was written with the sole intention of describing or commenting on TELEMAC itself and not a Psychic Reader\u2018s service.<\/p>\n\n\n\n<p>The feedback contains, in TELEMAC&#8217;s sole discretion, profane or vulgar language or sexually-oriented content. TELEMAC will remove feedback containing defamatory words such as &#8220;fake,&#8221; &#8220;sucks&#8221; or &#8220;boring&#8221;.<\/p>\n\n\n\n<p>The feedback contains personal identifying information about a Psychic Reader.<\/p>\n\n\n\n<p>The feedback contains negative comments regarding a Psychic Reader&#8217;s failure to perform actions or services which are outside the scope of the Psychic Reader&#8217;s Services.<\/p>\n\n\n\n<p>The feedback is made by a Customer who provided TELEMAC with false contact information during the registration process, and cannot be contacted.<\/p>\n\n\n\n<p>Feedback is determined by TELEMAC in its sole discretion to be of a harassing nature, and TELEMAC may remove any or all feedback made by that User.<\/p>\n\n\n\n<p>The feedback refers to another User&#8217;s feedback, mentions other Customers or includes links to other Websites.<\/p>\n\n\n\n<p>Feedback mistakenly left or intended for another Psychic Reader will be considered for removal only when the Customer responsible informs TELEMAC of the error.<\/p>\n\n\n\n<p>TELEMAC may, without notice, remove old ratings or exclude ratings which TELEMAC in its sole discretion believes compromises the integrity of the Customer feedback rating system.<\/p>\n\n\n\n<h5>8.3 Photo policy<\/h5>\n\n\n\n<p>We encourage Customers to upload photos in order to enhance their exchange with Psychic Readers. There are some restrictions on the content of the photos:<\/p>\n\n\n\n<p>Customers may not post any photos containing nudity or pornographic material.<\/p>\n\n\n\n<p>Customers may not upload, post or otherwise transmit any photo which is unlawful, harmful, threatening, harassing, tortuous, defamatory, infringing, vulgar, obscene, hateful, racially or ethnically objectionable or invasive of another&#8217;s privacy.<\/p>\n\n\n\n<p>Customers may not upload or post unauthorized advertising or promotional materials, or any other photo which they do not have the right to transmit under any law or contractual or fiduciary relationship. This includes any content that infringes any patent, trademark, trade secret, copyright or any other proprietary rights of any party, or material protected by intellectual property laws, right of privacy or publicity or any other applicable law, unless having all necessary contracts or consents.<\/p>\n\n\n\n<p>All photos, whether posted publicly or privately transmitted, are the sole responsibility of the person from which the photo originated.<\/p>\n\n\n\n<p>Although TELEMAC does not accept responsibility for these photos, TELEMAC does reserve the right to remove at any time, without notice, a photo or image that violates our Photo Policy or Customer Agreement.<\/p>\n\n\n\n<h5>8.4 Chat policy<\/h5>\n\n\n\n<p>You agree not to do any of the following while using TELEMAC Chat:<\/p>\n\n\n\n<p>Harass, threaten, or abuse Psychic Readers involved in your chat. Please use standard chat etiquette. This includes respecting the privacy of other TELEMAC Customers.<\/p>\n\n\n\n<p>Post or transmit any unsolicited advertising, promotional materials, or any other forms of solicitation for external or competitive websites, or reference your involvement with alternative chat programs or competitive services. This includes the exchange of personal contact information for off-site communication.<\/p>\n\n\n\n<p>Impersonate or misrepresent your affiliation with any person or entity, including TELEMAC and its employees and agents; or implying that any statements you make are endorsed by TELEMAC or its staff.<\/p>\n\n\n\n<p>Divulge your personal contact information to Psychic Readers and request to be contacted directly, including in-person meetings.<\/p>\n\n\n\n<p>Transmit through any unlawful, harassing, libelous, privacy invading, abusive, threatening, defamatory, vulgar, obscene, racist, harmful, or otherwise objectionable material of any kind.<\/p>\n\n\n\n<p>Threaten stalk, defame, defraud, degrade, victimize or intimidate an individual or group of individuals for any reason; including on the basis of age, gender, disability, ethnicity, sexual orientation, race or religion; or incites or encourages anyone else to do so.<\/p>\n\n\n\n<p>Transmit pictures, writing, or other material\/products whose primary purpose is to cause sexual arousal. TELEMAC reserves the right to decide in its sole discretion what it considers Sexually-Oriented content, Our Sexually-Oriented Policy applies to all services offered under TELEMAC, including TELEMAC Chat.<\/p>\n\n\n\n<p>Transmit any files that contain software viruses or any other computer code, files or programs designed to destroy, interrupt or otherwise limit the functionality of any computer software, computer hardware or other equipment. TELEMAC reserves the right, at its sole discretion, and without any obligation to do so, to review and remove user content at will and without notice, and delete content and accounts. TELEMAC reserves the right, at its sole discretion, to ban participants or terminate access to services.<\/p>\n\n\n\n<h5>8.5 Sexually-Oriented Content Policy<\/h5>\n\n\n\n<p>Telephone communications, discussions, postings and other services that include language, content, images and themes of a sexual or controversial nature (&#8220;Sexually-Oriented Content,&#8221; as described below), are not permitted.<\/p>\n\n\n\n<h4>9. ACCOUNT AND REGISTRATION<\/h4>\n\n\n\n<h5>9.1 Services<\/h5>\n\n\n\n<p>Although portions of the Content may be viewed simply by browsing the Company Property (the &#8220;General Services&#8221;), in order to access some of the personalized astrological features and\/or receive additional Content and Services (including email-based Services) from the Company (the &#8220;Personalized Services&#8221;), You need to open an account or register with us. The General Services and the Personalized Services are referred to collectively in these Terms of Use as the &#8220;Services.&#8221;<\/p>\n\n\n\n<p>In consideration for the Personalized Services, You agree to:<\/p>\n\n\n\n<p>(a) provide certain current, complete, and accurate information about Yourself as prompted to do so by the Company; and<\/p>\n\n\n\n<p>(b) maintain and update this information as required to keep it current, complete and accurate. All information that we request and You provide on original sign-up, and all updates thereto, are referred to in these Terms of Use as \u201cAccount Data\u201d or &#8220;Registration Data.&#8221;<\/p>\n\n\n\n<p>The Company reserves the right to take any and all action, as it deems necessary or reasonable to maintain the security of the Sites and Your account or\/and Registration, including without limitation, closing Your account, cancel Your Registration, changing Your Password or requesting information to authorize transactions on Your account.<\/p>\n\n\n\n<p>WE EXPLICITLY DISCLAIM LIABILITY FOR ANY AND ALL LOSSES AND DAMAGES ARISING FROM YOUR FAILURE TO COMPLY WITH THIS SECTION.<\/p>\n\n\n\n<h5>9.2 Eligibility.<\/h5>\n\n\n\n<p>The Company does not permit the Services to be used by temporarily or indefinitely suspended Customers. In addition, the Company does not permit use of the Services by residents (a) of any jurisdiction that may prohibit our Services or (b) of any country that is prohibited by law, regulation, treaty or administrative act from entering into trade relations with the United States or its citizens. Such countries may include, without limitation, Afghanistan, Burma, Cuba, Iran, Iraq, Libya, North Korea, Serbia, Syria and Sudan. If You do not qualify, do not use the Services.<\/p>\n\n\n\n<h5>9.3 Customer Account Data.<\/h5>\n\n\n\n<p>You are responsible for all uses of Your account, whether or not actually or expressly authorized by You. You may change Your password by following instructions on the Sites. You agree that Your account, Username and Password may not be transferred or sold to another party. You agree to immediately notify the Company of any unauthorized use of Your account or any other breach of security known to You.<\/p>\n\n\n\n<h5>9.4 Access to Your account.<\/h5>\n\n\n\n<p>In order to ensure the Company is able to provide high quality services, respond to Customer needs, and comply with laws, You hereby consent to the Company employees and agents accessing Your account and Account Data, pursuant to the terms of our Privacy Policy, on a case-by-case basis to investigate complaints or other allegations or suspected abuse.<\/p>\n\n\n\n<h5>9.5 Termination of Your account or\/and registration.<\/h5>\n\n\n\n<p>The Company may modify or discontinue (in whole or in part) the Services or Your account or Your Registration with us, with or without notice, for any reason without liability to You, any other User, or any third party. Without limiting the foregoing, we reserve the right to terminate Your account or\/and Registration immediately (a) if we are unable to verify or authenticate Your Account Data or\/and Registration Data or other information provided by You, (b) if we believe that Your actions may cause legal liability for You, the Company, or all or some of our other Customers, or (c) if we believe You have (i) provided us with false or misleading Account Data or\/and Registration Account or other information, (ii) interfered with other customers or the administration of the Services, or (iii) violated the Terms.<\/p>\n\n\n\n<h4>10. FEES AND PURCHASE TERMS<\/h4>\n\n\n\n<h5>10.1 Payment.<\/h5>\n\n\n\n<p>You agree to pay for all Services, including Readings (by chat or by phone) purchased using Your Account or\/and Registration in accordance with the fees, charges, and billing terms in effect at the time a fee or charge is due and payable.<\/p>\n\n\n\n<p>You must provide the Company with a valid credit card (Visa, MasterCard, or any other issuer accepted by us) as a condition to signing up for any of the Personalized Services.<\/p>\n\n\n\n<p>You will ensure that all credit card and payment information you provide is accurate, correct, and kept updated at all times, and that you are fully authorized to use such credit card and payment information.<\/p>\n\n\n\n<p>All credit card purchases must be made by the cardholder. Payments can be made in the following currencies: AUD, CAD, EUR, GBP and USD. Cards issued from the following countries, without limitation, are not accepted: Afghanistan, Burma, Cuba, Iran, Iraq, Libya, North Korea, Serbia, Syria and Sudan.<\/p>\n\n\n\n<p>Your Payment Provider agreement governs Your use of the designated credit card, and You must refer to that agreement and not these Terms to determine Your rights and liabilities. You may pay additional fees to Your card issuer as this is a transaction with a foreign company. Please check with Your financial institution for the amount of those fees before using TELEMAC\u2019s Services.<\/p>\n\n\n\n<p>You, and not TELEMAC, are responsible for paying any unauthorized amounts billed to Your credit card by a third party. You agree to pay all fees and at the rates in effect when the charges were incurred. Unless You notify TELEMAC of any discrepancies within thirty (30) days after they first appear on Your credit card statement, You agree they will be deemed accepted by You for all purposes. If TELEMAC does not receive payment from Your credit card issuer or its agent, You agree to pay all amounts due upon demand by TELEMAC or its agents.<\/p>\n\n\n\n<p>By providing the Company with Your credit card number and associated payment information, You agree that the Company is authorized to immediately invoice Your account or registration for all fees and charges due and payable to the Company hereunder and that no additional notice or consent is required. You agree to immediately notify the Company of any change in Your billing address or the credit card used for payment hereunder. We reserve the right at any time to change our prices and billing methods, either immediately upon posting on the Company Properties or by e-mail delivery to You.<\/p>\n\n\n\n<p>You and the Company may agree, with the Company\u2019s billing department, regarding payments over a period of time, not exceeding three (3) months, at no additional cost to You. The modalities of the timing (date and amount) will be set forth in your invoice or by any other means of written communications, such as text messages. In the event you choose, and the Company has agreed to proceed which such monthly payments, any credit card and\/or other payment information you submit to the Company shall act as acceptance of the payment terms, including the total amount due, any payment deadlines, and any and all other payment terms notwithstanding the absence of more formal written agreement.<\/p>\n\n\n\n<p>Cancellation of such payment agreement: in the absence of a total or partial payment due on any given deadline shall accelerate payment terms and cause the total amount to be immediately due and owing to the Company via a single transaction or several debit transactions of your credit, up to a maximum of the total amount, for which You initially gave your agreement. You hereby authorize the Company to debit the remaining sum due in one or more times. Subject to the availability of your telephone contact information, You shall be notified by text message of the collection(s) once carried out, up to a maximum of the total outstanding amount. Any payment disputes shall be dealt with pursuant to the terms of Article 20 herein.<\/p>\n\n\n\n<p>If a payment method is invalid, and a Customer incurs any past due amounts, TELEMAC reserves the right to charge any payment methods associated with the User\u2019s account or registration for any past due amounts (including any taxes and late fees) until such amounts are paid in full.<\/p>\n\n\n\n<h5>10.2 Billing<\/h5>\n\n\n\n<p>Please note that TELEMAC will use reasonable efforts to process payments after the end of each reading and within seven (7) business days of each purchase; however, there may be delays due to credit card and debit card payment processes. Charges incurred over a period of several daysmay be consolidated and charged as a single charge. If a credit card charge is declined, TELEMAC may attempt to charge any or all other cards you have on file (in one charge or in partial charges if unable to charge the full amount) for the following 180 days.<\/p>\n\n\n\n<p>Time charges are based on increments of a minute as measured on the Company\u2019s servers. Any use of a partial minute is rounded up to a full minute. In the pay per minute mode, billing starts from the third minute. TELEMAC\u2019s billing system is not fault-free; therefore, TELEMAC shall not be liable for any problems, miscalculations, or malfunctions in processing payments. If you believe a mistake has occurred, please submit a request at contact@telemac-inc.com.<\/p>\n\n\n\n<h5>10.3 Disputes.<\/h5>\n\n\n\n<p>You must notify us in writing within seven (7) days after receiving Your credit card statement, if You dispute any of our charges on that statement or such dispute will be deemed waived. Billing disputes should be notified at contact@telemac-inc.com.<\/p>\n\n\n\n<h5>10.4 Refund policy<\/h5>\n\n\n\n<p>TELEMAC has adopted a policy of honoring refund requests.<\/p>\n\n\n\n<p>To begin this process, please contact our Customer Service with your request. When contacting Customer Service via phone, account or registration validation is required.<\/p>\n\n\n\n<p>Upon acknowledgement of your request, refund will be credited to the originating payment method within 5 to 7 business days. TELEMAC will provide a confirmation number of receipt, if requested. If you have encountered an error in receiving a refund, please contact your credit\/debit card issuer for assistance. For certain financial institutions, it may take up to 30 days for a refund to reflect on your statement.<\/p>\n\n\n\n<p>Two types of refund process apply to the telephone psychic reading service: (i) initial offer refund and (ii) Customer claim refund.<\/p>\n\n\n\n<p>(i) initial offer refund<\/p>\n\n\n\n<p>The initial offer refund process is an automatic refund process that is used in the following two following configurations:<\/p>\n\n\n\n<p>1. The Customer purchased an initial offer, started his or her consultation but did not manage to use the offer correctly (for instance, disconnection occurred and the Customer was not reachable afterwards by phone);<\/p>\n\n\n\n<p>2. The Customer purchased an initial offer but was not available for his her consultation.<\/p>\n\n\n\n<p>In those two configurations, Customer automatic refund will proceed within the day of purchase.<\/p>\n\n\n\n<p>(ii) Customer claim refund<\/p>\n\n\n\n<p>For the sake of Customer satisfaction and to maintain top quality service, our Company relies on Customers\u2019 feedbacks. After each consultation, Customer representatives always collect Customers\u2019 feedback about the psychic reading service that has been delivered.<\/p>\n\n\n\n<p>When a refund is claimed, Customer representative launches a specific audit process with the following steps:<\/p>\n\n\n\n<p>1. The Customer representative takes charge of the Customer \u2019s complaint;<\/p>\n\n\n\n<p>2. A complaint form is sent to the Quality Assurance Service from a one-click action of the Customer representative;<\/p>\n\n\n\n<p>3. Priority is given to Customer\u2019s complaint. Auditors listen the consultation and assess it in accordance with internal company policy (note that calls are recorded for quality assurance, training and legal purposes, but all conversations remain confidential);<\/p>\n\n\n\n<p>4. A report is filed and sent back to Customer representative for follow-up actions;<\/p>\n\n\n\n<p>5. If breach(es) of the internal company policy is\/are detected, customers are entitled to a refund or consultation replacement;<\/p>\n\n\n\n<p>6. If breaches are not detected, we inform the Customer, decline the refund claim and close the case (information are stored for records).<\/p>\n\n\n\n<p>Note: Customers can claim a refund up to seven (7) days after the day the reading was delivered.<\/p>\n\n\n\n<p>TELEMAC reserves the right in its sole discretion to terminate a transaction in order to fulfill credit card industry regulations, payment processor and banking procedures, or in an effort to accommodate legal requests.<\/p>\n\n\n\n<p>If a breach of our Agreement, Customer error, technical issue or potential fraudulent transaction has been brought to our attention, TELEMAC may also choose to issue a refund.<\/p>\n\n\n\n<p>Chat psychic reading service<\/p>\n\n\n\n<p>When a refund is claimed, Customer representative launches a specific audit process with the following steps:<\/p>\n\n\n\n<p>1. The representative takes charge of the Customer\u2019s complaint;<\/p>\n\n\n\n<p>2. A complaint form and is sent to the Quality Assurance Service from a one-click action of the Customer representative;<\/p>\n\n\n\n<p>3. Priority is given to Customer representative\u2019s complaint. Auditors review the consultation (chat messages exchanged) and assess it in accordance with internal company policy (note that chat messages are retained for quality assurance, training and legal purposes, but all chat messages remain confidential);<\/p>\n\n\n\n<p>4. A report is filed and sent back to for follow-up actions;<\/p>\n\n\n\n<p>5. If breach(es) of the internal company policy is\/are detected, customers are entitled to a refund or consultation replacement;<\/p>\n\n\n\n<p>6. If breaches are not detected, we inform the Customer representative, decline the refund claim and close the case (information are stored for records).<\/p>\n\n\n\n<h4>11. MONITORING<\/h4>\n\n\n\n<h5>11.1 Content<\/h5>\n\n\n\n<p>You acknowledge and agree that we reserve the right (but have no obligation) to do one or all of the following, at our sole discretion: (a) evaluate Content and\/or User Content before allowing it to be posted on the Sites; (b) monitor Content and\/or User Content; (c) alter, remove, reject, or refuse to post or allow to be posted, without notice to You, any Content and\/or User Content, for any reason or for no reason whatsoever; provided, however, that we shall have no obligation or liability to You for failure to do so or for doing so in any particular manner; and\/or (d) disclose any Content and\/or User Content, and the circumstances surrounding its transmission, to any third party in order to operate the Sites; to protect the Company and the Customers; to comply with legal obligations or governmental requests; to enforce these Terms; or for any other reason or purpose.<\/p>\n\n\n\n<h5>11.2 Live telephone conversations<\/h5>\n\n\n\n<p>We may monitor or record your live telephone conversations with Psychic Readers for operational purposes, including for quality assurance, training and legal purposes and in furtherance of making certain services available to you. By agreeing to this Agreement or using the Sites or the Services, you consent to our monitoring or recording your live telephone conversations as just described.<\/p>\n\n\n\n<h5>11.3 Email and chat message<\/h5>\n\n\n\n<p>TELEMAC also reserves the right to monitor and review and retain Email and Chat message and to contact Customers in order to evaluate compliance with the rules and policies set forth in this Customer Agreement and to take other action as set forth in the Privacy Policy (including for quality assurance, training and legal purposes). We urge you to review and understand the Privacy Policy. As part of this Customer Agreement you are agreeing to the terms and conditions set forth in the Privacy Policy and are obliged to abide by its terms.<\/p>\n\n\n\n<h4>12. UPDATES TO THE COMPANY PROPERTY<\/h4>\n\n\n\n<p>You understand that the Company Property is evolving. We may make improvements and\/or changes to the Sites, add new features, or terminate the Sites and\/or the Services at any time without notice. As a result, the Company may require You to accept updates to the Company Property that You have installed on Your computer or mobile device. You acknowledge and agree that at any time and from time to time the Company may update the Company Property without any notice or liability to You or any other person. You may also need to update third-party software from time to time in order to use the Company Property. We do not warrant that information on the Sites is accurate, complete, reliable, current or error-free. Some jurisdictions may not allow the exclusions and disclaimers of certain implied warranties, so some of the provisions of this section may not apply to You.<\/p>\n\n\n\n<h4>13. THIRD PARTY SERVICES<\/h4>\n\n\n\n<h5>13.1 Social Media Pages.<\/h5>\n\n\n\n<p>The Company may maintain a presence on social media websites, including Facebook, Pinterest and Twitter (collectively, &#8220;Social Media Pages&#8221;), to provide a place for the public to learn more about the Company and to share comments. All comments, visuals and other materials posted by visitors to our Social Media Pages do not necessarily reflect the opinions or ideas of the Company. All visitors to our Social Media Pages must comply with the respective social media website&#8217;s Terms of Use. We review some but not all postings to our Social Media Pages and may remove postings that we determine are inappropriate or offensive.<\/p>\n\n\n\n<h5>13.2 App Stores.<\/h5>\n\n\n\n<p>You acknowledge and agree that the availability of the Mobile Application(s) and associated Services depend on the third-party from which You received the Mobile Application license, e.g., the App Store (Apple iOS devices) or Google Play (Android devices) (&#8220;App Store&#8221;). You acknowledge that the Terms are between You and the Company and not with the App Store. The Company, not the App Store, is solely responsible for the Company Property, including the Applications, the content thereof, and addressing any claims relating thereto. In order to use an Application, You must have access to a wireless network, and You agree to pay all fees associated with such access. You also agree to pay all fees (if any) charged by the App Store in connection with the Company Property, including the Application(s). You agree to comply with, and Your license to use the Application(s) is conditioned upon Your compliance with, all applicable third-party terms of agreement (e.g., the App Store&#8217;s terms and policies) when using the Company Property, including the Application(s). You acknowledge that the App Store (and its subsidiaries) are third-party beneficiaries of the Terms and will have the right to enforce them.<\/p>\n\n\n\n<h5>13.3 Third-Party Websites<\/h5>\n\n\n\n<p>The Services, or a portion thereof, may also be made available via third-party websites. If you have accessed the Services, or any portion thereof, via a third-party website, such use may be subject to terms and conditions imposed by such third party. TELEMAC is not responsible for any terms, conditions, policies, acts, content or omissions, of any such third parties.<\/p>\n\n\n\n<h5>13.4 Links and Advertisements<\/h5>\n\n\n\n<p>The Sites may contain links or other content (including advertisements on its own behalf or paid advertisements on behalf of third parties) related to web sites, products and\/or services offered by third parties and Company has no control over any such linked content or anything provided by any such third party. You acknowledge and agree that Company is not responsible for such third party links, content, web sites, products or services and will not be responsible or liable for anything related thereto and agrees that Company will not be responsible or liable, directly or indirectly, for any damage or loss caused or alleged by or in connection with the use of or reliance on any such link, web site, content, product and\/or service.<\/p>\n\n\n\n<h4>14. DISCLAIMER \u2013 NO PROFESSIONAL ADVICE<\/h4>\n\n\n\n<p>YOU UNDERSTAND AND AGREE THAT:<\/p>\n\n\n\n<p>(a) TO THE EXTENT PERMITTED BY APPLICABLE LAW, THE COMPANY PROPERTY IS PROVIDED &#8220;AS-IS&#8221; AND WITH ALL FAULTS. THE COMPANY ASSUMES NO RESPONSIBILITY FOR AVAILABILITY (OR LACK THEREOF), TIMELINESS (OR LACK THEREOF), DELETIONS, MISDELIVERIES, OR FAILURE TO STORE ANY MEMBER COMMUNICATIONS OR PERSONALIZATION SETTINGS. INFORMATION PROVIDED THROUGH OUR SERVICES, ON THE SITES AND IN TELEMAC MATERIALS, INCLUDING BUT NOT LIMITED TO THE INFORMATION PROVIDED IN CONSULTATIONS, TELEPHONE AND E-MAIL CONSULTATIONS, AS WELL AS THE TEXT, GRAPHICS, IMAGES, AND TOOLS POSTED ON VARIOUS PAGES, IS FOR INFORMATIONAL AND ENTERTAINMENT PURPOSES ONLY. INFORMATION FROM TELEMAC IS NOT INTENDED TO BE A SUBSTITUTE FOR ANY PROFESSIONAL ADVICE, INCLUDING BUT NOT LIMITED TO (A) PROFESSIONAL MEDICAL ADVICE, DIAGNOSIS, OR TREATMENT OR (B) PROFESSIONAL FINANCIAL OR INVESTMENT ADVICE OR GUIDANCE, OR (C) PROFESSIONAL LEGAL ADVICE. NEVER DISREGARD OR DELAY SEEKING PROFESSIONAL MEDICAL ADVICE OR OTHER PROFESSIONAL ADVICE. TELEMAC IS NOT ENGAGED IN THE PRACTICE OF MEDICINE OR LAW AND DOES NOT RECOMMEND OR ENDORSE ANY SPECIFIC PRODUCTS, PROCEDURES, TREATMENTS, MEDICATIONS, OPINIONS, OR OTHER INFORMATION THAT MAY BE MENTIONED, DISCUSSED, OR DESCRIBED ON THE SITES OR IN MATERIALS OR THROUGH OUR SERVICES. TELEMAC IS NOT ENGAGED IN THE BUSINESS OF PROVIDING FINANCIAL OR INVESTMENT ADVICE AND ITS EMPLOYEES OR CONTRACTORS ARE NOT REGISTERED ADVISORS. YOUR RELIANCE ON THE INFORMATION PROVIDED BY TELEMAC, ITS EMPLOYEES OR CONTRACTORS, ARE SOLELY AT YOUR OWN ELECTION OR CHOICE. ANY AND ALL DECISIONS THAT YOU MAKE THAT ARE BASED IN WHOLE OR IN PART UPON INFORMATION PROVIDED BY TELEMAC OR OTHERWISE ON THE SITES WILL BE YOUR SOLE AND EXCLUSIVE RESPONSIBILITY.<\/p>\n\n\n\n<p>(b) USE OF THE COMPANY PROPERTIES IS AT YOUR SOLE RISK, AND YOU WILL BE SOLELY RESPONSIBLE FOR ANY DAMAGE TO YOUR COMPUTER SYSTEM OR LOSS OF DATA THAT RESULTS FROM THE DOWNLOAD OF CONTENT AND\/OR DATA FROM THE COMPANY PROPERTY.<\/p>\n\n\n\n<p>(c) THE COMPANY PROPERTY ARE PROVIDED FOR ENTERTAINMENT PURPOSES ONLY AND TO THE EXTENT PERMITTED BY APPLICABLE LAW, COMPANY, ON BEHALF OF ITSELF AND ITS SUPPLIERS, DISCLAIMS ALL WARRANTIES, REPRESENTATIONS AND CONDITIONS OF ANY KIND, EXPRESS OR IMPLIED, INCLUDING WITHOUT LIMITATION ANY WARRANTY, REPRESENTATION OR CONDITION OF MERCHANTABILITY, FITNESS FOR A PARTICULAR PURPOSE, TITLE, OR NON-INFRINGEMENT AND IT MAKES NO WARRANTY, REPRESENTATION OR CONDITION REGARDING THE RESULTS THAT MAY BE OBTAINED FROM THE USE OF THE COMPANY PROPERTY, THE ACCURACY OR RELIABILITY OF ANY CONTENT OBTAINED THROUGH THE COMPANY PROPERTY, ANY GOODS OR SERVICES PURCHASED OR OBTAINED THROUGH THE COMPANY PROPERTY, OR ANY TRANSACTIONS ENTERED INTO THROUGH THE COMPANY PROPERTY, AND MAKES NO WARRANTY, REPRESENTATION OR CONDITION THAT THE COMPANY PROPERTY WILL MEET YOUR REQUIREMENTS, BE UNINTERRUPTED, TIMELY, SECURE OR ERROR FREE. NO ADVICE OR INFORMATION, WHETHER ORAL OR WRITTEN, OBTAINED BY YOU FROM COMPANY OR THROUGH THE COMPANY PROPERTY SHALL CREATE ANY WARRANTY, REPRESENTATION OR CONDITION.<\/p>\n\n\n\n<p>(d) IN PARTICULAR, BUT NOT BY WAY OF LIMITATION, COMPANY MAY CLOSE YOUR ACCOUNT OR REGISTRATION, DELETE ACCOUNT DATA, ANY EMAIL OR OTHER COMMUNICATIONS, OR ANY OTHER INFORMATION THEREIN FOR ANY REASON, INCLUDING IF THE ACCOUNT IS INACTIVE FOR MORE THAN NINETY (90) DAYS.<\/p>\n\n\n\n<p>(e) TELEMAC does not make any warranty as to the completeness of the information provided by Psychic Readers regarding rates, plans and pricing. Please refer to Pricing Policy for such details.<\/p>\n\n\n\n<p>(f) Unless specifically stated otherwise, the images of persons shown on this web site are not professionally qualified or certified Psychic Readers working for TELEMAC, nor are they customers of our company. TELEMAC uses stock images to protect the confidentiality of its Psychic Readers.<\/p>\n\n\n\n<p>(g) TELEMAC does not refer, endorse, recommend, verify, evaluate or guarantee any advice, information, entertainment services or other products or services provided by Psychic Readers, or any specific Customer or Services, and nothing shall be considered as a referral, endorsement, recommendation or guarantee.<\/p>\n\n\n\n<p>You must use your judgment to determine whether to initiate, receive and\/or discontinue use of the Services. Customers who initiate, receive and\/or discontinue use of the Services do so entirely at their own risk, and TELEMAC bears no responsibility in this regard.<\/p>\n\n\n\n<p>SOME JURISDICTIONS DO NOT ALLOW THE EXCLUSION OF CERTAIN WARRANTIES, REPRESENTATIONS OR CONDITIONS, THE LIMITATION OR EXCLUSION OF IMPLIED WARRANTIES, OR LIMITATIONS ON HOW LONG AN IMPLIED WARRANTY MAY LAST, SO SOME OF THE ABOVE LIMITATIONS MAY NOT APPLY IN FULL TO YOU.<\/p>\n\n\n\n<h4>15. LIMITATIONS OF LIABILITY<\/h4>\n\n\n\n<p>TO THE EXTENT PERMITTED BY APPLICABLE LAW, THE COMPANY, ITS OFFICERS, DIRECTORS, EMPLOYEES, PARTNERS AND SUPPLIERS SHALL NOT BE LIABLE FOR ANY INDIRECT, INCIDENTAL, SPECIAL, CONSEQUENTIAL OR PUNITIVE DAMAGES OF ANY KIND, INCLUDING BUT NOT LIMITED TO DAMAGES FOR LOSS OF PROFITS AND THE COST OF PROCUREMENT OF SUBSTITUTE GOODS AND SERVICES (COLLECTIVELY, &#8220;INDIRECT DAMAGES&#8221;) ARISING OUT OF OR IN CONNECTION WITH THE COMPANY PROPERTIES, OUR PRIVACY POLICY, OR THESE TERMS (HOWEVER ARISING, INCLUDING NEGLIGENCE), EVEN IF THE COMPANY HAS BEEN ADVISED OF THE POSSIBILITY OF SUCH DAMAGES. WITHOUT LIMITING THE FOREGOING AND TO THE EXTENT PERMITTED BY APPLICABLE LAW, COMPANY, ITS OFFICERS, DIRECTORS, EMPLOYEES, PARTNERS AND SUPPLIERS WILL NOT BE LIABLE FOR INDIRECT DAMAGES ARISING OUT OF OR IN CONNECTION WITH:<\/p>\n\n\n\n<p>(a) THE USE OF OR THE INABILITY TO USE THE COMPANY PROPERTY;<\/p>\n\n\n\n<p>(b) ANY GOODS OR SERVICES PURCHASED OR OBTAINED THROUGH THE COMPANY PROPERTY, OR MESSAGES RECEIVED OR TRANSACTIONS ENTERED INTO THROUGH THE COMPANY PROPERTY; OR<\/p>\n\n\n\n<p>(c) LOSS OF, UNAUTHORIZED ACCESS TO, OR ALTERATION OF, YOUR TRANSMISSIONS OR DATA.<\/p>\n\n\n\n<p>THE LIABILITY OF COMPANY, ITS OFFICERS, DIRECTORS, EMPLOYEES, PARTNERS AND SUPPLIERS TO YOU OR ANY THIRD-PARTIES ARISING OUT OF OR IN CONNECTION WITH THE COMPANY PROPERTY, OUR PRIVACY POLICY, OR THESE TERMS (HOWEVER ARISING, INCLUDING NEGLIGENCE) IS LIMITED TO THE LESSER OF (A) THE AMOUNT OF FEES YOU PAID TO US AFTER PAYMENTS TO ADVISORS AND OTHER THIRD-PARTIES IN THE TWELVE (12) MONTHS PRIOR TO THE ACTION GIVING RISE TO LIABILITY, OR (B) $200.<\/p>\n\n\n\n<p>SOME JURISDICTIONS PROHIBIT THE EXCLUSION OR LIMITATION OF LIABILITY FOR INCIDENTAL, CONSEQUENTIAL OR PUNITIVE DAMAGES. ACCORDINGLY, SOME OF THE LIMITATIONS AND EXCLUSIONS SET FORTH ABOVE MAY NOT APPLY TO YOU.<\/p>\n\n\n\n<h4>16. NOTICE OF COPYRIGHT INFRINGEMENT<\/h4>\n\n\n\n<p>We will investigate notices of copyright infringement and take appropriate actions under the Digital Millennium Copyright Act, Title 17, United States Code, Section 512(c)(2) (&#8220;DMCA&#8221;). If You believe that Your work has been used or copied in a way that constitutes copyright infringement and such infringement is occurring on the Company Property or on Third-Party Sites, please provide, pursuant to the DMCA, written notification of claimed copyright infringement to the Designated Agent for this Sites (identified below), which must contain the following elements:<\/p>\n\n\n\n<p>(a) A physical or electronic signature of the person authorized to act on behalf of the owner of the copyright interest that is alleged to have been infringed;<\/p>\n\n\n\n<p>(b) A description of the copyrighted work(s) that You claim have been infringed and identification of what content in such work(s) is claimed to be infringing and which You request to be removed or access to which is to be disabled;<\/p>\n\n\n\n<p>(c) A description of where the content that You claim is infringing is located on the Company Property;<\/p>\n\n\n\n<p>(d) Information sufficient to permit the Company to contact You, such as Your physical address, telephone number and e-mail address;<\/p>\n\n\n\n<p>(e) A statement by You that You have a good faith belief that the use of the content identified in Your notice in the manner complained of is not authorized by the copyright owner, its agent or the law; and<\/p>\n\n\n\n<p>(f) A statement by You that the information in Your notice is accurate and, under penalty of perjury, that You are the copyright owner or authorized to act on the copyright owner&#8217;s behalf. You can reach our Designated Agent for notice of claims of copyright infringement by emailing us at legal@telemac-inc.com. The Designated Agent should be contacted only if You believe that Your work has been used or copied in a way that constitutes copyright infringement and such infringement is occurring on the Company Property or on Third-Party Sites, or in connection with the Company Property. All other inquiries directed to the Designated Agent may not be responded to.<\/p>\n\n\n\n<p>If any Customer of the Sites is deemed to be a repeat copyright infringer, the Company will terminate such Customer&#8217;s license to use the Sites.<\/p>\n\n\n\n<h4>17. INDEMNIFICATION<\/h4>\n\n\n\n<p>You agree to indemnify, defend and hold harmless the Company and its parent, subsidiaries, affiliates, officers, directors, employees, suppliers, consultants, contractors, and agents (the &#8220;Company Parties&#8221;) from any and all claims, liability, losses, damages and\/or costs (including, but not limited to, reasonable attorneys&#8217; fees) arising from Your use of the Company Property, Your violation of these Terms, unsolicited information You provide to the Company through the Sites, or Your violation of any third party&#8217;s rights, including without limitation, infringement by You or any other user of Your account of any intellectual property or other right of any person or entity. These Terms will inure to the benefit of the Company&#8217;s successors, assigns, and licensees.<\/p>\n\n\n\n<h4>18. TERMINATION<\/h4>\n\n\n\n<p>The Sites, the Services and these Terms are in effect until terminated by the Company. In addition to any right or remedy that may be available to the Company under applicable law, the Company may suspend, limit or terminate all or a portion of Your access to the Sites or the Services or any of its features at any time with or without notice and with or without cause and without liability to You, including without limitation, if the Company believes that You have violated or acted inconsistently with the spirit of the terms and conditions herein. The provisions of these Terms concerning authorized use, intellectual property rights, disclaimer of warranty, limitation of liability and indemnity, as well as any other provisions that by their nature should survive, shall survive any such termination.<\/p>\n\n\n\n<p>You agree that if Your use of the Sites is terminated pursuant to these Terms, You will not attempt to use the Sites or the Services under any name, real or assumed. You further agree that if You violate this restriction after Your use of the Sites or the Services is terminated, You will indemnify and hold us harmless from any and all liability that we may incur therefor. We reserve the right to have all violators prosecuted to the fullest extent of the law.<\/p>\n\n\n\n<h4>19. CHILD PRIVACY<\/h4>\n\n\n\n<p>If You are under the age of 18, please do not use or access the Sites. It is not our intention to collect or use personal information from anyone under 18 years of age, and we will not knowingly do so. If we are made aware that we have collected any personal information from children under the age of 18 and are asked to delete such information from our databases, we will promptly do so.<\/p>\n\n\n\n<h4>20. DISPUTE RESOLUTION; INJUNCTIVE RELIEF<\/h4>\n\n\n\n<p>Any dispute, controversy, or claim arising out of, relating to, or in connection with these Terms or the breach, termination, enforcement, interpretation or validity thereof, including the determination of the scope or applicability of this agreement to arbitrate shall be settled by binding arbitration in accordance with the Comprehensive Arbitration Rules and Procedures of JAMS (www.jamsadr.com). The arbitration shall be conducted by a single arbitrator, selected in accordance with the rules of JAMS, and judgment on the arbitration award may be entered in any court having jurisdiction thereof. The arbitration shall be conducted in Florida.<\/p>\n\n\n\n<p>Notwithstanding the foregoing, either party has the right to seek any interim or preliminary relief from a court of competent jurisdiction in Florida in order to protect the rights of such party pending the completion of any arbitration hereunder, and both parties agree to submit to the exclusive jurisdiction of the courts of the State of Florida for any such proceeding. If either party files an action contrary to this provision, the other party may recover attorneys&#8217; fees and costs up to one thousand US dollars (US $1,000).<\/p>\n\n\n\n<p>These policies apply soelely to residents of the United States as TELEMAC is headquartered in USA.<\/p>\n\n\n\n<p>THE 7TH CIRCLE Company is a contact service center (CSC) located in Europe (Spain) that provides CSC services mainly to EU customers under TELEMAC INC\u2019s governance. In case of Force Majeure (see article 22.5) where TELEMAC INC fails to perform, THE 7TH CIRCLE may provide CSC services to US customers also as long as Force Majeure applies.<\/p>\n\n\n\n<p>For service charge collection provided by THE 7TH CIRCLE Company, any dispute, controversy, or claim arising out of, relating to, or in connection with these Terms or the breach, termination, enforcement, interpretation or validity thereof, including the determination of the scope or applicability of this agreement to arbitrate shall be conducted in Spain jurisdiction.<\/p>\n\n\n\n<p>YOU AND WE AGREE THAT EACH MAY BRING CLAIMS AGAINST THE OTHER ONLY IN YOUR OR OUR INDIVIDUAL CAPACITY, AND NOT AS A PLAINTIFF OR CLASS MEMBER IN ANY PURPORTED CLASS OR REPRESENTATIVE PROCEEDING. YOU AND WE ALSO AGREE TO WAIVE THE RIGHT TO A TRIAL BY JURY.<\/p>\n\n\n\n<p>This provision shall survive termination of this Agreement.<\/p>\n\n\n\n<h4>21. INTERNATIONAL CUSTOMERS<\/h4>\n\n\n\n<p>This Sites and Services can be accessed from countries around the world and may contain references to the Company Property and Content that are not available in Your country. These references do not imply that the Company intends to announce Company Property or Content in Your country. The Company Property are controlled and offered by the Company from external hosting facilities mainly located in France, the European Union and the United States of America. The Company Property is not intended to subject the Company to the laws or jurisdiction of any state, country or territory other than that of the United States. THE COMPANY DOES NOT REPRESENT OR WARRANT THAT THE SITES OR ANY PART THEREOF ARE APPROPRIATE OR AVAILABLE FOR USE IN ANY PARTICULAR JURISDICTION OTHER THAN THE UNITED STATES. Those who choose to access the Sites do so on their own initiative and at their own risk, and are responsible for complying with all statutes, orders, regulations, rules and other laws of applicable jurisdictions.<\/p>\n\n\n\n<h4>22. GENERAL PROVISIONS<\/h4>\n\n\n\n<h5>22.1 Other Policies and Terms.<\/h5>\n\n\n\n<p>These Terms apply exclusively to Your access to, and use of, the Sites and the Services and does not alter in any way the terms or conditions of any other agreement You may have with the Company. Additional policies and terms may apply to use of all or portions of the Sites and are incorporated by reference into these Terms. Please refer to and review all additional specific terms and conditions as applicable, including the Company&#8217;s Privacy Policy.<\/p>\n\n\n\n<h5>22.2 Electronic Communications.<\/h5>\n\n\n\n<p>If You provide us with a telephone number, address or email address, You expressly agree that we, or our authorized agents, can use that telephone number, address or email address to contact You. The communications between You and the Company use electronic means, whether You visit the Company Property or send Company e-mails, or whether the Company posts notices of the Company Properties or communicates with You via e-mail.<\/p>\n\n\n\n<p>For contractual purposes, You (1) consent to receive communications from or on behalf of the Company in an electronic form, by e-mail or by posting notices on the Sites; and (2) agree that all terms and conditions, agreements, notices, disclosures, and other communications that the Company provides to You electronically satisfy any legal requirement that such communications would satisfy if it were to be in writing. All notices from the Company intended for receipt by a Customer shall be deemed delivered and effective when sent to the email address You provide on the Sites. The foregoing does not affect Your statutory rights.<\/p>\n\n\n\n<h5>22.3 Release.<\/h5>\n\n\n\n<p>You hereby release the Company Parties and their successors from claims, demands, any and all losses, damages, rights, and actions of any kind, including personal injuries, death, and property damage, that is either directly or indirectly related to or arises from any interactions with or conduct of other Sites customers or third-party websites of any kind arising in connection with or as a result of the Terms or Your use of the Company Property. If You are a California resident, You hereby waive California Civil Code Section 1542, which states:<\/p>\n\n\n\n<p>&#8220;A GENERAL RELEASE DOES NOT EXTEND TO CLAIMS WHICH THE CREDITOR DOES NOT KNOW OR SUSPECT TO EXIST IN HIS FAVOR AT THE TIME OF EXECUTING THE RELEASE, WHICH, IF KNOWN BY HIM MUST HAVE MATERIALLY AFFECTED HIS SETTLEMENT WITH THE DEBTOR.&#8221;<\/p>\n\n\n\n<p>Residents of other states and jurisdictions waive their rights under analogous laws, statutes or regulations.<\/p>\n\n\n\n<h5>22.4 Assignment.<\/h5>\n\n\n\n<p>The Terms, and Your rights and obligations hereunder, may not be assigned, subcontracted, delegated, or otherwise transferred by You without the Company&#8217;s prior written consent, and any attempted assignment, subcontract, delegation, or transfer in violation of the foregoing will be null and void.<\/p>\n\n\n\n<h5>22.5 Force Majeure.<\/h5>\n\n\n\n<p>The Company shall not be liable for any delay or failure to perform resulting from causes outside its reasonable control, including, but not limited to, acts of God, war, terrorism, riots, embargos, acts of civil or military authorities, fire, floods, accidents, strikes or shortages of transportation facilities, fuel, energy, labor or materials.<\/p>\n\n\n\n<h5>22.6 Governing Law.<\/h5>\n\n\n\n<p>Any dispute in connection with the Sites or these Terms will be governed by the laws of the State of Florida and the United States of America. This provision shall survive termination of these Terms.<\/p>\n\n\n\n<p>These policies apply soelely to residents of the United States as TELEMAC is headquartered in USA.<\/p>\n\n\n\n<p>For service charge collection provided by THE 7TH CIRCLE Company, any dispute in connection with the Sites or these Terms will be governed by the laws of Spain. This provision shall survive termination of these Terms<\/p>\n\n\n\n<h5>22.7 Choice of Language.<\/h5>\n\n\n\n<p>The Parties expressly acknowledge that the Terms and all related documents have been drawn up in English.<\/p>\n\n\n\n<h5>22.8 Notice.<\/h5>\n\n\n\n<p>The Company may provide You with notices, including those regarding changes to the Terms, by e-mail, regular mail, text messaging, posting on the Company Property, or other reasonable means, now known or hereafter developed. Where the Company requires that You provide an e-mail address, You are responsible for providing the Company with Your most current e-mail address. In the event that the last e-mail address You provided to the Company is not valid, or for any reason is not capable of delivering to You any notices required\/ permitted by the Terms, the Company&#8217;s dispatch of the e-mail containing such notice will nonetheless constitute effective notice.<\/p>\n\n\n\n<p>If You believe that the Company has not adhered to the Terms, please contact the Company by emailing us at legal@telemac-inc.com. We will do our best to address Your concerns. If You feel that Your complaint has been addressed incompletely, we invite You to let us know for further investigation.<\/p>\n\n\n\n<p>You may give notice to the Company at the following address:<\/p>\n\n\n\n<p>TELEMAC INC<br>Legal service<br>175 SW 7th street<br>Miami, FL 33130, USA<\/p>\n\n\n\n<p>Any notice or other communication must be given will be in writing.<\/p>\n\n\n\n<p>Such notice shall be deemed given when received by the Company by letter delivered by nationally recognized overnight delivery service or first-class postage prepaid mail at the above address.<\/p>\n\n\n\n<p>The date of receipt shall be deemed the date on which such notice is transmitted in the case of Email, and five (5) days after receipt by the U.S. Postal Service in the case of United States mail.<\/p>\n\n\n\n<h5>22.9 Waiver.<\/h5>\n\n\n\n<p>No waiver, express or implied, by either party of any breach of or default under these Terms will constitute a continuing waiver of such breach or default or be deemed to be a waiver of any preceding or subsequent breach or default.<\/p>\n\n\n\n<h5>22.10 Severability.<\/h5>\n\n\n\n<p>If any provision of the Terms is, for any reason, held to be invalid or unenforceable, the other provisions of the Terms will remain enforceable, and the invalid or unenforceable provision will be deemed modified so that it is valid and enforceable to the maximum extent permitted by law.<\/p>\n\n\n\n<h5>22.11 Accessing and Download the Application from iTunes.<\/h5>\n\n\n\n<p>The following applies to any Application accessed through or downloaded from the Apple App Store (&#8220;App Store Sourced Application&#8221;):<\/p>\n\n\n\n<p>(a) You acknowledge and agree that (i) the Terms are concluded between You and the Company only, and not Apple, and (ii) the Company, not Apple, is solely responsible for the App Store Sourced Application and content thereof. Your use of the App Store Sourced Application must comply with the App Store Terms of Use.<\/p>\n\n\n\n<p>(b) You acknowledge that Apple has no obligation whatsoever to furnish any maintenance and support services with respect to the App Store Sourced Application.<\/p>\n\n\n\n<p>(c) In the event of any failure of the App Store Sourced Application to conform to any applicable warranty, You may notify Apple, and Apple will refund the purchase price for the App Store Sourced Application to You and to the maximum extent permitted by applicable law, Apple will have no other warranty obligation whatsoever with respect to the App Store Sourced Application. As between the Company and Apple, any other claims, losses, liabilities, damages, costs or expenses attributable to any failure to conform to any warranty will be the sole responsibility of the Company.<\/p>\n\n\n\n<p>(d) You and the Company acknowledge that, as between the Company and Apple, Apple is not responsible for addressing any claims You have or any claims of any third-party relating to the App Store Sourced Application or Your possession and use of the App Store Sourced Application, including, but not limited to: (i) product liability claims; (ii) any claim that the App Store Sourced Application fails to conform to any applicable legal or regulatory requirement; and (iii) claims arising under consumer protection or similar legislation.<\/p>\n\n\n\n<p>(e) You and the Company acknowledge that, in the event of any third-party claim that the App Store Sourced Application or Your possession and use of that App Store Sourced Application infringes that third-party&#8217;s intellectual property rights, as between the Company and Apple, the Company, not Apple, will be solely responsible for the investigation, defense, settlement and discharge of any such intellectual property infringement claim to the extent required by the Terms.<\/p>\n\n\n\n<p>(f) You and the Company acknowledge and agree that Apple, and Apple&#8217;s subsidiaries, are third-party beneficiaries of the Terms as related to Your license of the App Store Sourced Application, and that, upon Your acceptance of the terms and conditions of the Terms, Apple will have the right (and will be deemed to have accepted the right) to enforce the Terms as related to Your license of the App Store Sourced Application against You as a third-party beneficiary thereof.<\/p>\n\n\n\n<p>(g) Without limiting any other terms of the Terms, You must comply with all applicable third-party terms of agreement when using the App Store Sourced Application.<\/p>\n\n\n\n<h5>22.12 Consumer Complaints.<\/h5>\n\n\n\n<p>In accordance with California Civil Code Section 1789.3, You may report complaints to the Complaint Assistance Unit of the Division of Consumer Services of the California Department of Consumer Affairs by contacting them in writing at 400 R Street, Sacramento, CA 95814, or by telephone at (800) 952-5210.<\/p>\n\n\n\n<h5>22.13 Entire Agreement.<\/h5>\n\n\n\n<p>The Terms are the final, complete and exclusive agreement of the parties i.e., You and the Company, with respect to the subject matter hereof and supersedes and merges all prior discussions between the parties with respect to such subject matter.<\/p>\n\n\n\n<h4>23. CONTACTING THE COMPANY &amp; SUBMISSIONS<\/h4>\n\n\n\n<p>If You have questions about these Terms, or if You have technical questions about the operation of the Sites, or if You have any questions, suggestions, ideas, feedback, or recommendations about these Terms of Use, the practices of our Sites, or Your dealings with us, please contact us via email at contact@telemac-inc.com or by phone at the following numbers:<\/p>\n\n\n\n<p>From USA: +1 646 655 0596<br>From Canada: +1 613 416 7969<br>From UK: +44 203 695 0224<br>From Australia: +61 285 203 733<br>From the rest of the world: +1 646 655 0596<\/p>\n\n\n\n<p>or by mail at:<\/p>\n\n\n\n<p>TELEMAC INC<br>Customer service<br>175 SW 7th street<br>Miami, FL 33130, USA<\/p>\n"}